<?xml version="1.0" encoding="UTF-8"?>

<!-- generated on 2025-12-13T01:11:22.069086+08:00 by Eclipse SUMO netedit 1.25.0
<neteditConfiguration xmlns:xsi="http://www.w3.org/2001/XMLSchema-instance" xsi:noNamespaceSchemaLocation="http://sumo.dlr.de/xsd/neteditConfiguration.xsd">

    <input>
        <sumocfg-file value="C:\Users\Lenovo\Desktop\ML Assignment\Code\RL.sumocfg"/>
        <additional-files value="C:\Users\Lenovo\Desktop\ML Assignment\Code\RL.add.xml"/>
        <route-files value="C:\Users\Lenovo\Desktop\ML Assignment\Code\RL.rou.xml"/>
        <sumo-net-file value="C:\Users\Lenovo\Desktop\ML Assignment\Code\RL.net.xml"/>
    </input>

    <output>
        <output-file value="C:\Users\Lenovo\Desktop\ML Assignment\Code\RL.net.xml"/>
    </output>

    <processing>
        <geometry.min-radius.fix.railways value="false"/>
        <geometry.avoid-overlap value="false"/>
        <geometry.max-grade.fix value="false"/>
        <offset.disable-normalization value="true"/>
        <lefthand value="0"/>
    </processing>

    <junctions>
        <no-turnarounds value="true"/>
        <junctions.corner-detail value="5"/>
        <junctions.limit-turn-speed value="5.50"/>
        <rectangular-lane-cut value="0"/>
    </junctions>

    <pedestrian>
        <walkingareas value="0"/>
    </pedestrian>

    <netedit>
        <ignore.additionalelements value="0"/>
        <ignore.routeelements value="0"/>
    </netedit>

</neteditConfiguration>
-->

<net version="1.20" junctionCornerDetail="5" limitTurnSpeed="5.50" avoidOverlap="0" xmlns:xsi="http://www.w3.org/2001/XMLSchema-instance" xsi:noNamespaceSchemaLocation="http://sumo.dlr.de/xsd/net_file.xsd">

    <location netOffset="0.00,0.00" convBoundary="-170.60,-55.24,146.59,107.71" origBoundary="-10000000000.00,-10000000000.00,10000000000.00,10000000000.00" projParameter="!"/>

    <edge id=":Node1_0" function="internal">
        <lane id=":Node1_0_0" index="0" speed="11.12" length="28.81" shape="-160.91,12.53 -168.73,11.30 -174.23,7.86 -177.41,2.21 -178.27,-5.66"/>
        <lane id=":Node1_0_1" index="1" speed="10.09" length="23.57" shape="-160.87,9.33 -167.26,8.33 -171.76,5.51 -174.37,0.89 -175.07,-5.55"/>
        <lane id=":Node1_0_2" index="2" speed="8.96" length="18.33" shape="-160.82,6.13 -165.80,5.35 -169.30,3.16 -171.32,-0.44 -171.87,-5.45"/>
    </edge>
    <edge id=":Node1_3" function="internal">
        <lane id=":Node1_3_0" index="0" speed="3.90" length="2.62" shape="-162.28,-5.12 -162.20,-4.41 -161.91,-3.89 -161.41,-3.58 -160.70,-3.47"/>
        <lane id=":Node1_3_1" index="1" speed="6.07" length="7.86" shape="-165.47,-5.23 -165.24,-3.09 -164.37,-1.54 -162.87,-0.61 -160.74,-0.27"/>
        <lane id=":Node1_3_2" index="2" speed="7.65" length="13.09" shape="-168.67,-5.34 -168.28,-1.76 -166.84,0.81 -164.34,2.37 -160.78,2.93"/>
    </edge>
    <edge id=":Node2_0" function="internal">
        <lane id=":Node2_0_0" index="0" speed="6.68" length="9.47" shape="-23.73,20.18 -24.10,17.61 -25.20,15.77 -27.03,14.65 -29.59,14.25"/>
    </edge>
    <edge id=":Node2_1" function="internal">
        <lane id=":Node2_1_0" index="0" speed="13.89" length="27.47" shape="-23.73,20.18 -23.76,-7.30"/>
        <lane id=":Node2_1_1" index="1" speed="13.89" length="27.47" shape="-20.53,20.17 -20.56,-7.30"/>
        <lane id=":Node2_1_2" index="2" speed="13.89" length="27.47" shape="-17.33,20.16 -17.36,-7.30"/>
    </edge>
    <edge id=":Node2_4" function="internal">
        <lane id=":Node2_4_0" index="0" speed="10.34" length="5.04" shape="-17.33,20.16 -16.63,15.17"/>
    </edge>
    <edge id=":Node2_20" function="internal">
        <lane id=":Node2_20_0" index="0" speed="10.34" length="19.62" shape="-16.63,15.17 -16.39,13.46 -13.52,8.69 -8.73,5.87 -2.01,4.99"/>
    </edge>
    <edge id=":Node2_5" function="internal">
        <lane id=":Node2_5_0" index="0" speed="6.48" length="9.03" shape="-2.12,14.59 -4.58,14.91 -6.33,15.94 -7.38,17.69 -7.73,20.14"/>
    </edge>
    <edge id=":Node2_6" function="internal">
        <lane id=":Node2_6_0" index="0" speed="13.89" length="27.47" shape="-2.12,14.59 -29.59,14.25"/>
        <lane id=":Node2_6_1" index="1" speed="13.89" length="27.47" shape="-2.08,11.39 -29.55,11.05"/>
        <lane id=":Node2_6_2" index="2" speed="13.89" length="27.47" shape="-2.05,8.19 -29.51,7.85"/>
    </edge>
    <edge id=":Node2_9" function="internal">
        <lane id=":Node2_9_0" index="0" speed="10.46" length="5.05" shape="-2.05,8.19 -7.04,7.42"/>
    </edge>
    <edge id=":Node2_21" function="internal">
        <lane id=":Node2_21_0" index="0" speed="10.46" length="19.72" shape="-7.04,7.42 -8.75,7.15 -13.53,4.23 -16.40,-0.59 -17.36,-7.30"/>
    </edge>
    <edge id=":Node2_10" function="internal">
        <lane id=":Node2_10_0" index="0" speed="6.66" length="9.41" shape="-7.76,-7.30 -7.40,-4.75 -6.30,-2.92 -4.49,-1.81 -1.94,-1.41"/>
    </edge>
    <edge id=":Node2_11" function="internal">
        <lane id=":Node2_11_0" index="0" speed="13.89" length="27.45" shape="-7.76,-7.30 -7.73,20.14"/>
        <lane id=":Node2_11_1" index="1" speed="13.89" length="27.45" shape="-10.96,-7.30 -10.93,20.15"/>
        <lane id=":Node2_11_2" index="2" speed="13.89" length="27.45" shape="-14.16,-7.30 -14.13,20.16"/>
    </edge>
    <edge id=":Node2_14" function="internal">
        <lane id=":Node2_14_0" index="0" speed="10.34" length="4.97" shape="-14.16,-7.30 -14.86,-2.38"/>
    </edge>
    <edge id=":Node2_22" function="internal">
        <lane id=":Node2_22_0" index="0" speed="10.34" length="19.69" shape="-14.86,-2.38 -15.12,-0.59 -18.00,4.16 -22.79,6.98 -29.51,7.85"/>
    </edge>
    <edge id=":Node2_15" function="internal">
        <lane id=":Node2_15_0" index="0" speed="6.48" length="9.03" shape="-29.38,-1.75 -26.92,-2.07 -25.17,-3.10 -24.11,-4.84 -23.76,-7.30"/>
    </edge>
    <edge id=":Node2_16" function="internal">
        <lane id=":Node2_16_0" index="0" speed="13.89" length="27.45" shape="-29.38,-1.75 -1.94,-1.41"/>
        <lane id=":Node2_16_1" index="1" speed="13.89" length="27.45" shape="-29.42,1.45 -1.98,1.79"/>
        <lane id=":Node2_16_2" index="2" speed="13.89" length="27.45" shape="-29.46,4.65 -2.01,4.99"/>
    </edge>
    <edge id=":Node2_19" function="internal">
        <lane id=":Node2_19_0" index="0" speed="10.48" length="4.99" shape="-29.46,4.65 -24.53,5.42"/>
    </edge>
    <edge id=":Node2_23" function="internal">
        <lane id=":Node2_23_0" index="0" speed="10.48" length="19.79" shape="-24.53,5.42 -22.77,5.69 -17.98,8.63 -15.10,13.45 -14.13,20.16"/>
    </edge>
    <edge id=":Node3_0" function="internal">
        <lane id=":Node3_0_0" index="0" speed="11.13" length="27.66" shape="152.13,-0.64 150.73,6.77 147.29,12.04 141.83,15.16 134.35,16.13"/>
        <lane id=":Node3_0_1" index="1" speed="10.11" length="22.63" shape="148.94,-0.79 147.78,5.27 144.98,9.58 140.51,12.14 134.39,12.93"/>
        <lane id=":Node3_0_2" index="2" speed="8.97" length="17.60" shape="145.74,-0.94 144.84,3.78 142.66,7.13 139.19,9.11 134.43,9.73"/>
    </edge>
    <edge id=":Node3_3" function="internal">
        <lane id=":Node3_3_0" index="0" speed="3.91" length="2.51" shape="134.53,0.14 135.21,0.05 135.71,-0.24 136.02,-0.72 136.15,-1.39"/>
        <lane id=":Node3_3_1" index="1" speed="6.08" length="7.54" shape="134.50,3.34 136.54,3.07 138.03,2.22 138.96,0.78 139.35,-1.24"/>
        <lane id=":Node3_3_2" index="2" speed="7.66" length="12.57" shape="134.46,6.53 137.86,6.09 140.34,4.67 141.90,2.28 142.54,-1.09"/>
    </edge>
    <edge id=":Node4_0" function="internal">
        <lane id=":Node4_0_0" index="0" speed="3.91" length="2.52" shape="-159.32,-47.23 -160.00,-47.14 -160.49,-46.85 -160.80,-46.36 -160.92,-45.69"/>
        <lane id=":Node4_0_1" index="1" speed="6.08" length="7.56" shape="-159.31,-50.43 -161.35,-50.14 -162.84,-49.27 -163.76,-47.82 -164.11,-45.79"/>
        <lane id=":Node4_0_2" index="2" speed="7.66" length="12.60" shape="-159.31,-53.63 -162.71,-53.15 -165.18,-51.70 -166.71,-49.28 -167.31,-45.90"/>
    </edge>
    <edge id=":Node4_3" function="internal">
        <lane id=":Node4_3_0" index="0" speed="11.13" length="27.72" shape="-176.91,-46.22 -175.59,-53.67 -172.22,-58.99 -166.79,-62.17 -159.30,-63.23"/>
        <lane id=":Node4_3_1" index="1" speed="10.11" length="22.68" shape="-173.71,-46.11 -172.63,-52.21 -169.87,-56.56 -165.43,-59.17 -159.30,-60.03"/>
        <lane id=":Node4_3_2" index="2" speed="8.97" length="17.64" shape="-170.51,-46.01 -169.67,-50.75 -167.53,-54.13 -164.07,-56.16 -159.31,-56.83"/>
    </edge>
    <edge id=":Node5_0" function="internal">
        <lane id=":Node5_0_0" index="0" speed="6.54" length="9.12" shape="-23.76,-41.40 -24.11,-43.90 -25.16,-45.68 -26.91,-46.75 -29.36,-47.11"/>
        <lane id=":Node5_0_1" index="1" speed="8.03" length="14.28" shape="-20.56,-41.40 -21.11,-45.30 -22.76,-48.08 -25.51,-49.75 -29.36,-50.31"/>
    </edge>
    <edge id=":Node5_2" function="internal">
        <lane id=":Node5_2_0" index="0" speed="11.35" length="29.83" shape="-20.56,-41.40 -19.40,-49.50 -15.92,-55.26 -10.13,-58.68 -2.01,-59.76"/>
        <lane id=":Node5_2_1" index="1" speed="10.35" length="24.63" shape="-17.36,-41.40 -16.40,-48.09 -13.53,-52.85 -8.74,-55.67 -2.04,-56.56"/>
    </edge>
    <edge id=":Node5_4" function="internal">
        <lane id=":Node5_4_0" index="0" speed="6.48" length="9.03" shape="-2.14,-46.96 -4.60,-46.63 -6.36,-45.60 -7.41,-43.85 -7.76,-41.40"/>
    </edge>
    <edge id=":Node5_5" function="internal">
        <lane id=":Node5_5_0" index="0" speed="13.89" length="27.25" shape="-2.14,-46.96 -29.36,-47.11"/>
        <lane id=":Node5_5_1" index="1" speed="13.89" length="27.25" shape="-2.11,-50.16 -29.36,-50.31"/>
        <lane id=":Node5_5_2" index="2" speed="13.89" length="27.25" shape="-2.08,-53.36 -29.35,-53.51"/>
    </edge>
    <edge id=":Node5_8" function="internal">
        <lane id=":Node5_8_0" index="0" speed="13.89" length="27.34" shape="-29.34,-63.11 -1.98,-62.96"/>
        <lane id=":Node5_8_1" index="1" speed="13.89" length="27.34" shape="-29.35,-59.91 -2.01,-59.76"/>
        <lane id=":Node5_8_2" index="2" speed="13.89" length="27.34" shape="-29.35,-56.71 -2.04,-56.56"/>
    </edge>
    <edge id=":Node5_11" function="internal">
        <lane id=":Node5_11_0" index="0" speed="10.90" length="6.23" shape="-29.35,-56.71 -23.16,-55.97"/>
        <lane id=":Node5_11_1" index="1" speed="10.38" length="5.15" shape="-29.35,-56.71 -24.26,-55.97"/>
    </edge>
    <edge id=":Node5_13" function="internal">
        <lane id=":Node5_13_0" index="0" speed="10.90" length="20.98" shape="-23.16,-55.97 -21.30,-55.75 -15.56,-52.88 -12.11,-48.09 -10.96,-41.40"/>
        <lane id=":Node5_13_1" index="0" speed="10.38" length="19.45" shape="-24.26,-55.97 -22.70,-55.75 -17.96,-52.88 -15.11,-48.09 -14.16,-41.40"/>
    </edge>
    <edge id=":Node6_0" function="internal">
        <lane id=":Node6_0_0" index="0" speed="11.11" length="29.14" shape="136.72,-61.50 144.65,-60.28 150.19,-56.80 153.35,-51.07 154.12,-43.08"/>
        <lane id=":Node6_0_1" index="1" speed="10.09" length="23.84" shape="136.69,-58.30 143.18,-57.30 147.71,-54.46 150.29,-49.77 150.92,-43.23"/>
        <lane id=":Node6_0_2" index="2" speed="8.96" length="18.54" shape="136.65,-55.10 141.70,-54.33 145.23,-52.11 147.24,-48.46 147.72,-43.38"/>
    </edge>
    <edge id=":Node6_3" function="internal">
        <lane id=":Node6_3_0" index="0" speed="3.90" length="2.65" shape="138.13,-43.83 138.06,-44.56 137.78,-45.08 137.27,-45.39 136.55,-45.50"/>
        <lane id=":Node6_3_1" index="1" speed="6.07" length="7.95" shape="141.33,-43.68 141.12,-45.86 140.26,-47.42 138.75,-48.37 136.59,-48.70"/>
        <lane id=":Node6_3_2" index="2" speed="7.65" length="13.24" shape="144.53,-43.53 144.18,-47.16 142.74,-49.77 140.22,-51.35 136.62,-51.90"/>
    </edge>

    <edge id="-E2" from="Node6" to="Node3" priority="-1">
        <lane id="-E2_0" index="0" speed="13.89" length="42.49" shape="154.12,-43.08 152.13,-0.64"/>
        <lane id="-E2_1" index="1" speed="13.89" length="42.49" shape="150.92,-43.23 148.94,-0.79"/>
        <lane id="-E2_2" index="2" speed="13.89" length="42.49" shape="147.72,-43.38 145.74,-0.94"/>
    </edge>
    <edge id="-E3" from="Node5" to="Node6" priority="-1">
        <lane id="-E3_0" index="0" speed="13.89" length="138.70" shape="-1.98,-62.96 136.72,-61.50"/>
        <lane id="-E3_1" index="1" speed="13.89" length="138.70" shape="-2.01,-59.76 136.69,-58.30"/>
        <lane id="-E3_2" index="2" speed="13.89" length="138.70" shape="-2.04,-56.56 136.65,-55.10"/>
    </edge>
    <edge id="-E4" from="Node4" to="Node5" priority="-1">
        <lane id="-E4_0" index="0" speed="13.89" length="129.96" shape="-159.30,-63.23 -29.34,-63.11"/>
        <lane id="-E4_1" index="1" speed="13.89" length="129.96" shape="-159.30,-60.03 -29.35,-59.91"/>
        <lane id="-E4_2" index="2" speed="13.89" length="129.96" shape="-159.31,-56.83 -29.35,-56.71"/>
    </edge>
    <edge id="-E5" from="Node1" to="Node4" priority="-1">
        <lane id="-E5_0" index="0" speed="13.89" length="40.58" shape="-178.27,-5.66 -176.91,-46.22"/>
        <lane id="-E5_1" index="1" speed="13.89" length="40.58" shape="-175.07,-5.55 -173.71,-46.11"/>
        <lane id="-E5_2" index="2" speed="13.89" length="40.58" shape="-171.87,-5.45 -170.51,-46.01"/>
    </edge>
    <edge id="E2" from="Node3" to="Node6" priority="-1">
        <lane id="E2_0" index="0" speed="13.89" length="42.49" shape="136.15,-1.39 138.13,-43.83"/>
        <lane id="E2_1" index="1" speed="13.89" length="42.49" shape="139.35,-1.24 141.33,-43.68"/>
        <lane id="E2_2" index="2" speed="13.89" length="42.49" shape="142.54,-1.09 144.53,-43.53"/>
    </edge>
    <edge id="E3" from="Node6" to="Node5" priority="-1">
        <lane id="E3_0" index="0" speed="13.89" length="138.70" shape="136.55,-45.50 -2.14,-46.96"/>
        <lane id="E3_1" index="1" speed="13.89" length="138.70" shape="136.59,-48.70 -2.11,-50.16"/>
        <lane id="E3_2" index="2" speed="13.89" length="138.70" shape="136.62,-51.90 -2.08,-53.36"/>
    </edge>
    <edge id="E4" from="Node5" to="Node4" priority="-1">
        <lane id="E4_0" index="0" speed="13.89" length="129.96" shape="-29.36,-47.11 -159.32,-47.23"/>
        <lane id="E4_1" index="1" speed="13.89" length="129.96" shape="-29.36,-50.31 -159.31,-50.43"/>
        <lane id="E4_2" index="2" speed="13.89" length="129.96" shape="-29.35,-53.51 -159.31,-53.63"/>
    </edge>
    <edge id="E5" from="Node4" to="Node1" priority="-1">
        <lane id="E5_0" index="0" speed="13.89" length="40.58" shape="-160.92,-45.69 -162.28,-5.12"/>
        <lane id="E5_1" index="1" speed="13.89" length="40.58" shape="-164.11,-45.79 -165.47,-5.23"/>
        <lane id="E5_2" index="2" speed="13.89" length="40.58" shape="-167.31,-45.90 -168.67,-5.34"/>
    </edge>
    <edge id="Node1_2_EB" from="Node1" to="Node2" priority="-1">
        <lane id="Node1_2_EB_0" index="0" speed="13.89" length="131.33" shape="-160.70,-3.47 -29.38,-1.75"/>
        <lane id="Node1_2_EB_1" index="1" speed="13.89" length="131.33" shape="-160.74,-0.27 -29.42,1.45"/>
        <lane id="Node1_2_EB_2" index="2" speed="13.89" length="131.33" shape="-160.78,2.93 -29.46,4.65"/>
    </edge>
    <edge id="Node1_2_WB" from="Node2" to="Node1" priority="-1">
        <lane id="Node1_2_WB_0" index="0" speed="13.89" length="131.33" shape="-29.59,14.25 -160.91,12.53"/>
        <lane id="Node1_2_WB_1" index="1" speed="13.89" length="131.33" shape="-29.55,11.05 -160.87,9.33"/>
        <lane id="Node1_2_WB_2" index="2" speed="13.89" length="131.33" shape="-29.51,7.85 -160.82,6.13"/>
    </edge>
    <edge id="Node2_3_EB" from="Node2" to="Node3" priority="-1">
        <lane id="Node2_3_EB_0" index="0" speed="13.89" length="136.48" shape="-1.94,-1.41 134.53,0.14"/>
        <lane id="Node2_3_EB_1" index="1" speed="13.89" length="136.48" shape="-1.98,1.79 134.50,3.34"/>
        <lane id="Node2_3_EB_2" index="2" speed="13.89" length="136.48" shape="-2.01,4.99 134.46,6.53"/>
    </edge>
    <edge id="Node2_3_WB" from="Node3" to="Node2" priority="-1">
        <lane id="Node2_3_WB_0" index="0" speed="13.89" length="136.48" shape="134.35,16.13 -2.12,14.59"/>
        <lane id="Node2_3_WB_1" index="1" speed="13.89" length="136.48" shape="134.39,12.93 -2.08,11.39"/>
        <lane id="Node2_3_WB_2" index="2" speed="13.89" length="136.48" shape="134.43,9.73 -2.05,8.19"/>
    </edge>
    <edge id="Node2_5_NB" from="Node5" to="Node2" priority="-1">
        <lane id="Node2_5_NB_0" index="0" speed="13.89" length="34.10" shape="-7.76,-41.40 -7.76,-7.30"/>
        <lane id="Node2_5_NB_1" index="1" speed="13.89" length="34.10" shape="-10.96,-41.40 -10.96,-7.30"/>
        <lane id="Node2_5_NB_2" index="2" speed="13.89" length="34.10" shape="-14.16,-41.40 -14.16,-7.30"/>
    </edge>
    <edge id="Node2_5_SB" from="Node2" to="Node5" priority="-1">
        <lane id="Node2_5_SB_0" index="0" speed="13.89" length="34.10" shape="-23.76,-7.30 -23.76,-41.40"/>
        <lane id="Node2_5_SB_1" index="1" speed="13.89" length="34.10" shape="-20.56,-7.30 -20.56,-41.40"/>
        <lane id="Node2_5_SB_2" index="2" speed="13.89" length="34.10" shape="-17.36,-7.30 -17.36,-41.40"/>
    </edge>
    <edge id="Node2_7_NB" from="Node2" to="Node7" priority="-1">
        <lane id="Node2_7_NB_0" index="0" speed="13.89" length="87.55" shape="-7.73,20.14 -7.54,107.69"/>
        <lane id="Node2_7_NB_1" index="1" speed="13.89" length="87.55" shape="-10.93,20.15 -10.74,107.70"/>
        <lane id="Node2_7_NB_2" index="2" speed="13.89" length="87.55" shape="-14.13,20.16 -13.94,107.71"/>
    </edge>
    <edge id="Node2_7_SB" from="Node7" to="Node2" priority="-1" length="59.39">
        <lane id="Node2_7_SB_0" index="0" speed="13.89" length="59.39" shape="-23.54,107.73 -23.73,20.18"/>
        <lane id="Node2_7_SB_1" index="1" speed="13.89" length="59.39" shape="-20.34,107.72 -20.53,20.17"/>
        <lane id="Node2_7_SB_2" index="2" speed="13.89" length="59.39" shape="-17.14,107.71 -17.33,20.16"/>
    </edge>

    <tlLogic id="Node2" type="static" programID="0" offset="0">
        <phase duration="42" state="GGGGgrrrrrGGGGgrrrrr"/>
        <phase duration="3"  state="yyyyyrrrrryyyyyrrrrr"/>
        <phase duration="42" state="rrrrrGGGGgrrrrrGGGGg"/>
        <phase duration="3"  state="rrrrryyyyyrrrrryyyyy"/>
    </tlLogic>
    <tlLogic id="Node5" type="static" programID="0" offset="0">
        <phase duration="10" state="rrrrGGGGGGGgg"/>
        <phase duration="3"  state="rrrrGyyyyyyyy"/>
        <phase duration="42" state="GGGGGrrrrrrrr"/>
        <phase duration="3"  state="yyyyGrrrrrrrr"/>
    </tlLogic>

    <junction id="Node1" type="priority" x="-170.60" y="4.40" incLanes="Node1_2_WB_0 Node1_2_WB_1 Node1_2_WB_2 E5_0 E5_1 E5_2" intLanes=":Node1_0_0 :Node1_0_1 :Node1_0_2 :Node1_3_0 :Node1_3_1 :Node1_3_2" shape="-160.93,14.13 -160.68,-5.07 -179.87,-5.71 -179.52,0.28 -178.05,5.19 -175.46,9.04 -171.74,11.81 -166.90,13.51">
        <request index="0" response="000000" foes="000000" cont="0"/>
        <request index="1" response="000000" foes="000000" cont="0"/>
        <request index="2" response="000000" foes="000000" cont="0"/>
        <request index="3" response="000000" foes="000000" cont="0"/>
        <request index="4" response="000000" foes="000000" cont="0"/>
        <request index="5" response="000000" foes="000000" cont="0"/>
    </junction>
    <junction id="Node2" type="traffic_light" x="-15.76" y="6.43" incLanes="Node2_7_SB_0 Node2_7_SB_1 Node2_7_SB_2 Node2_3_WB_0 Node2_3_WB_1 Node2_3_WB_2 Node2_5_NB_0 Node2_5_NB_1 Node2_5_NB_2 Node1_2_EB_0 Node1_2_EB_1 Node1_2_EB_2" intLanes=":Node2_0_0 :Node2_1_0 :Node2_1_1 :Node2_1_2 :Node2_20_0 :Node2_5_0 :Node2_6_0 :Node2_6_1 :Node2_6_2 :Node2_21_0 :Node2_10_0 :Node2_11_0 :Node2_11_1 :Node2_11_2 :Node2_22_0 :Node2_15_0 :Node2_16_0 :Node2_16_1 :Node2_16_2 :Node2_23_0" shape="-25.33,20.18 -6.13,20.14 -5.69,17.92 -5.14,17.15 -4.36,16.60 -3.36,16.28 -2.14,16.19 -1.92,-3.01 -4.28,-3.51 -5.10,-4.11 -5.69,-4.94 -6.04,-6.00 -6.16,-7.30 -25.36,-7.30 -25.80,-5.08 -26.36,-4.31 -27.14,-3.76 -28.14,-3.44 -29.36,-3.35 -29.61,15.85 -27.24,16.36 -26.41,16.96 -25.81,17.80 -25.45,18.87">
        <request index="0"  response="00000000000111000000" foes="00000000000111000000" cont="0"/>
        <request index="1"  response="11111000001111000000" foes="11111100001111000000" cont="0"/>
        <request index="2"  response="11111000001111000000" foes="11111100001111000000" cont="0"/>
        <request index="3"  response="11111000001111000000" foes="11111100001111000000" cont="0"/>
        <request index="4"  response="11110011101111000000" foes="11110011101111000000" cont="1"/>
        <request index="5"  response="00000000000000000000" foes="00000011100000000000" cont="0"/>
        <request index="6"  response="00000000000000010000" foes="10000111100000011111" cont="0"/>
        <request index="7"  response="00000000000000010000" foes="10000111100000011111" cont="0"/>
        <request index="8"  response="00000100000000010000" foes="10000111100000011111" cont="0"/>
        <request index="9"  response="01110100000000010000" foes="01110111100000011110" cont="1"/>
        <request index="10" response="01110000000000000000" foes="01110000000000000000" cont="0"/>
        <request index="11" response="11110000001111100000" foes="11110000001111110000" cont="0"/>
        <request index="12" response="11110000001111100000" foes="11110000001111110000" cont="0"/>
        <request index="13" response="11110000001111100000" foes="11110000001111110000" cont="0"/>
        <request index="14" response="11110000001111001110" foes="11110000001111001110" cont="1"/>
        <request index="15" response="00000000000000000000" foes="00000000000000001110" cont="0"/>
        <request index="16" response="00000100000000000000" foes="00000111111000011110" cont="0"/>
        <request index="17" response="00000100000000000000" foes="00000111111000011110" cont="0"/>
        <request index="18" response="00000100000000010000" foes="00000111111000011110" cont="0"/>
        <request index="19" response="00000100000111010000" foes="00000111100111011110" cont="1"/>
    </junction>
    <junction id="Node3" type="priority" x="143.71" y="8.24" incLanes="-E2_0 -E2_1 -E2_2 Node2_3_EB_0 Node2_3_EB_1 Node2_3_EB_2" intLanes=":Node3_0_0 :Node3_0_1 :Node3_0_2 :Node3_3_0 :Node3_3_1 :Node3_3_2" shape="153.73,-0.57 134.55,-1.46 134.34,17.73 140.02,17.28 144.73,15.79 148.45,13.26 151.19,9.69 152.95,5.08">
        <request index="0" response="000000" foes="000000" cont="0"/>
        <request index="1" response="000000" foes="000000" cont="0"/>
        <request index="2" response="000000" foes="000000" cont="0"/>
        <request index="3" response="000000" foes="000000" cont="0"/>
        <request index="4" response="000000" foes="000000" cont="0"/>
        <request index="5" response="000000" foes="000000" cont="0"/>
    </junction>
    <junction id="Node4" type="priority" x="-168.60" y="-55.24" incLanes="E4_0 E4_1 E4_2 -E5_0 -E5_1 -E5_2" intLanes=":Node4_0_0 :Node4_0_1 :Node4_0_2 :Node4_3_0 :Node4_3_1 :Node4_3_2" shape="-159.32,-45.63 -159.30,-64.83 -164.99,-64.32 -169.69,-62.78 -173.39,-60.20 -176.10,-56.59 -177.80,-51.95 -178.51,-46.27">
        <request index="0" response="000000" foes="000000" cont="0"/>
        <request index="1" response="000000" foes="000000" cont="0"/>
        <request index="2" response="000000" foes="000000" cont="0"/>
        <request index="3" response="000000" foes="000000" cont="0"/>
        <request index="4" response="000000" foes="000000" cont="0"/>
        <request index="5" response="000000" foes="000000" cont="0"/>
    </junction>
    <junction id="Node5" type="traffic_light" x="-15.76" y="-55.10" incLanes="Node2_5_SB_0 Node2_5_SB_1 Node2_5_SB_2 E3_0 E3_1 E3_2 -E4_0 -E4_1 -E4_2" intLanes=":Node5_0_0 :Node5_0_1 :Node5_2_0 :Node5_2_1 :Node5_4_0 :Node5_5_0 :Node5_5_1 :Node5_5_2 :Node5_8_0 :Node5_8_1 :Node5_8_2 :Node5_13_0 :Node5_13_1" shape="-25.36,-41.40 -6.16,-41.40 -5.72,-43.62 -5.16,-44.39 -4.38,-44.94 -3.38,-45.26 -2.16,-45.36 -1.96,-64.56 -29.34,-64.71 -29.36,-45.51 -27.14,-45.05 -26.36,-44.48 -25.80,-43.68 -25.47,-42.65">
        <request index="0"  response="0000011100000" foes="0000011100000" cont="0"/>
        <request index="1"  response="0000011100000" foes="0000011100000" cont="0"/>
        <request index="2"  response="1111111100000" foes="1111111100000" cont="0"/>
        <request index="3"  response="1111111100000" foes="1111111100000" cont="0"/>
        <request index="4"  response="0000000000000" foes="0000000000000" cont="0"/>
        <request index="5"  response="0000000000000" foes="1100000001111" cont="0"/>
        <request index="6"  response="0000000000000" foes="1100000001111" cont="0"/>
        <request index="7"  response="0000000000000" foes="1100000001111" cont="0"/>
        <request index="8"  response="0000000000000" foes="0000000001100" cont="0"/>
        <request index="9"  response="0000000000000" foes="0000000001100" cont="0"/>
        <request index="10" response="0000000000000" foes="0000000001100" cont="0"/>
        <request index="11" response="0000011100000" foes="0000011101100" cont="1"/>
        <request index="12" response="0000011100000" foes="0000011101100" cont="1"/>
    </junction>
    <junction id="Node6" type="priority" x="146.59" y="-53.40" incLanes="-E3_0 -E3_1 -E3_2 E2_0 E2_1 E2_2" intLanes=":Node6_0_0 :Node6_0_1 :Node6_0_2 :Node6_3_0 :Node6_3_1 :Node6_3_2" shape="136.74,-63.10 136.54,-43.90 155.71,-43.01 155.45,-49.09 154.02,-54.08 151.44,-57.98 147.69,-60.78 142.79,-62.49">
        <request index="0" response="000000" foes="000000" cont="0"/>
        <request index="1" response="000000" foes="000000" cont="0"/>
        <request index="2" response="000000" foes="000000" cont="0"/>
        <request index="3" response="000000" foes="000000" cont="0"/>
        <request index="4" response="000000" foes="000000" cont="0"/>
        <request index="5" response="000000" foes="000000" cont="0"/>
    </junction>
    <junction id="Node7" type="dead_end" x="-15.54" y="107.71" incLanes="Node2_7_NB_0 Node2_7_NB_1 Node2_7_NB_2" intLanes="" shape="-15.54,107.71 -5.94,107.69 -15.54,107.71"/>

    <junction id=":Node2_20_0" type="internal" x="-16.63" y="15.17" incLanes=":Node2_4_0 Node2_5_NB_0 Node2_5_NB_1 Node2_5_NB_2" intLanes=":Node2_6_0 :Node2_6_1 :Node2_6_2 :Node2_9_0 :Node2_10_0 :Node2_11_0 :Node2_11_1 :Node2_11_2 :Node2_16_0 :Node2_16_1 :Node2_16_2 :Node2_19_0"/>
    <junction id=":Node2_21_0" type="internal" x="-7.04" y="7.42" incLanes=":Node2_9_0 Node1_2_EB_0 Node1_2_EB_1 Node1_2_EB_2" intLanes=":Node2_1_0 :Node2_1_1 :Node2_1_2 :Node2_4_0 :Node2_11_0 :Node2_11_1 :Node2_11_2 :Node2_14_0 :Node2_15_0 :Node2_16_0 :Node2_16_1 :Node2_16_2"/>
    <junction id=":Node2_22_0" type="internal" x="-14.86" y="-2.38" incLanes=":Node2_14_0 Node2_7_SB_0 Node2_7_SB_1 Node2_7_SB_2" intLanes=":Node2_0_0 :Node2_1_0 :Node2_1_1 :Node2_1_2 :Node2_6_0 :Node2_6_1 :Node2_6_2 :Node2_9_0 :Node2_16_0 :Node2_16_1 :Node2_16_2 :Node2_19_0"/>
    <junction id=":Node2_23_0" type="internal" x="-24.53" y="5.42" incLanes=":Node2_19_0 Node2_3_WB_0 Node2_3_WB_1 Node2_3_WB_2" intLanes=":Node2_1_0 :Node2_1_1 :Node2_1_2 :Node2_4_0 :Node2_5_0 :Node2_6_0 :Node2_6_1 :Node2_6_2 :Node2_11_0 :Node2_11_1 :Node2_11_2 :Node2_14_0"/>
    <junction id=":Node5_13_0" type="internal" x="-23.16" y="-55.97" incLanes=":Node5_11_0 E3_0 E3_1 E3_2" intLanes=":Node5_2_0 :Node5_2_1 :Node5_5_0 :Node5_5_1 :Node5_5_2"/>
    <junction id=":Node5_13_1" type="internal" x="-24.26" y="-55.97" incLanes=":Node5_11_1 E3_0 E3_1 E3_2" intLanes=":Node5_2_0 :Node5_2_1 :Node5_5_0 :Node5_5_1 :Node5_5_2"/>

    <connection from="-E2" to="Node2_3_WB" fromLane="0" toLane="0" via=":Node3_0_0" dir="l" state="M"/>
    <connection from="-E2" to="Node2_3_WB" fromLane="1" toLane="1" via=":Node3_0_1" dir="l" state="M"/>
    <connection from="-E2" to="Node2_3_WB" fromLane="2" toLane="2" via=":Node3_0_2" dir="l" state="M"/>
    <connection from="-E3" to="-E2" fromLane="0" toLane="0" via=":Node6_0_0" dir="l" state="M"/>
    <connection from="-E3" to="-E2" fromLane="1" toLane="1" via=":Node6_0_1" dir="l" state="M"/>
    <connection from="-E3" to="-E2" fromLane="2" toLane="2" via=":Node6_0_2" dir="l" state="M"/>
    <connection from="-E4" to="-E3" fromLane="0" toLane="0" via=":Node5_8_0" tl="Node5" linkIndex="8" dir="s" state="O"/>
    <connection from="-E4" to="-E3" fromLane="1" toLane="1" via=":Node5_8_1" tl="Node5" linkIndex="9" dir="s" state="O"/>
    <connection from="-E4" to="-E3" fromLane="2" toLane="2" via=":Node5_8_2" tl="Node5" linkIndex="10" dir="s" state="O"/>
    <connection from="-E4" to="Node2_5_NB" fromLane="2" toLane="1" via=":Node5_11_0" tl="Node5" linkIndex="11" dir="l" state="o"/>
    <connection from="-E4" to="Node2_5_NB" fromLane="2" toLane="2" via=":Node5_11_1" tl="Node5" linkIndex="12" dir="l" state="o"/>
    <connection from="-E5" to="-E4" fromLane="0" toLane="0" via=":Node4_3_0" dir="l" state="M"/>
    <connection from="-E5" to="-E4" fromLane="1" toLane="1" via=":Node4_3_1" dir="l" state="M"/>
    <connection from="-E5" to="-E4" fromLane="2" toLane="2" via=":Node4_3_2" dir="l" state="M"/>
    <connection from="E2" to="E3" fromLane="0" toLane="0" via=":Node6_3_0" dir="r" state="M"/>
    <connection from="E2" to="E3" fromLane="1" toLane="1" via=":Node6_3_1" dir="r" state="M"/>
    <connection from="E2" to="E3" fromLane="2" toLane="2" via=":Node6_3_2" dir="r" state="M"/>
    <connection from="E3" to="Node2_5_NB" fromLane="0" toLane="0" via=":Node5_4_0" tl="Node5" linkIndex="4" dir="r" state="O"/>
    <connection from="E3" to="E4" fromLane="0" toLane="0" via=":Node5_5_0" tl="Node5" linkIndex="5" dir="s" state="O"/>
    <connection from="E3" to="E4" fromLane="1" toLane="1" via=":Node5_5_1" tl="Node5" linkIndex="6" dir="s" state="O"/>