<?xml version="1.0" encoding="UTF-8"?>

<!-- generated on 2025-12-13T01:09:33.547376+08:00 by Eclipse SUMO netedit 1.25.0
-->

<routes xmlns:xsi="http://www.w3.org/2001/XMLSchema-instance" xsi:noNamespaceSchemaLocation="http://sumo.dlr.de/xsd/routes_file.xsd">
    <!-- Vehicles, persons and containers (sorted by depart) -->
    <flow id="f_0" begin="0.00" end="3600.00" perHour="1800.00" from="-E4" to="Node1_2_WB" via="-E3 -E2 Node2_3_WB"/>
    <flow id="f_1" begin="0.00" end="3600.00" perHour="1800.00" departLane="0" departPos="0.00" line="3" from="Node2_7_SB" to="E5" via="Node2_5_SB E4"/>
    <flow id="f_2" begin="0.00" end="3600.00" perHour="1800.00" from="Node1_2_EB" to="E4" via="Node2_3_EB E2 E3"/>
</routes>
